/*--------------------------------*- C++ -*----------------------------------*\
| =========                 |                                                 |
| \\      /  F ield         | OpenFOAM: The Open Source CFD Toolbox           |
|  \\    /   O peration     | Version:  v2406                                 |
|   \\  /    A nd           | Website:  www.openfoam.com                      |
|    \\/     M anipulation  |                                                 |
\*---------------------------------------------------------------------------*/
FoamFile
{
    version     2.0;
    format      ascii;
    class       dictionary;
    object      blockMeshDict;
}
// * * * * * * * * * * * * * * * * * * * * * * * * * * * * * * * * * * * * * //

scale   1;

vertices
(
    // main background
    (-150  -190  -10)              // 0
    ( 250  -190  -10)              // 1
    ( 250   190  -10)              // 2
    (-150   190  -10)              // 3
    (-150  -190   150)            // 4
    ( 250  -190   150)            // 5
    ( 250   190   150)            // 6
    (-150   190   150)            // 7

//    // movingZone
//    (-40  -90  15)        // 8    (0)
//    ( 40  -90  15)        // 9    (1)
//    ( 40   90  15)        // 10   (2)
//    (-40   90  15)        // 11   (3)
//    (-40  -90  75)        // 12   (4)
//    ( 40  -90  75)        // 13   (5)
//    ( 40   90  75)        // 14   (6)
//    (-40   90  75)        // 15   (7)
);

blocks
(
    hex (0 1 2 3 4 5 6 7) (60 44 27) simpleGrading (1 1 1)
   
);

edges
(
);

boundary
(
    // ----- Background -----
    ground
    {
        type wall;
        faces
        (
            (0 3 2 1)
        );
    }
    top
    {
        type patch;
        faces
        (
            (4 5 6 7)
        );
    }

    inlet
    {
        type patch;
        faces
        (
            (0 4 7 3)
        );
    }

    outlet
    {
        type patch;
        faces
        (
            (2 6 5 1)
        );
    }
    
    sides
    {
        type patch; // maybe type patch;
        faces
        (
            (1 5 4 0)
            (3 7 6 2)
        );
    }
);
mergePatchPairs
(
);

// ************************************************************************* //
