/*--------------------------------*- C++ -*----------------------------------*\
| =========                 |                                                 |
| \\      /  F ield         | OpenFOAM: The Open Source CFD Toolbox           |
|  \\    /   O peration     | Version:  v2406                                 |
|   \\  /    A nd           | Website:  www.openfoam.com                      |
|    \\/     M anipulation  |                                                 |
\*---------------------------------------------------------------------------*/
FoamFile
{
    version     2.0;
    format      ascii;
    class       dictionary;
    object      controlDict;
}
// * * * * * * * * * * * * * * * * * * * * * * * * * * * * * * * * * * * * * //

// libs            (overset fvMotionSolvers);
libs            (overset fvMotionSolvers atmosphericModels);
// libs
// (
//     "liboverset.so",
//     "libfvMotionSolvers.so",
//     "libatmosphericModels.so"
// );

DebugSwitches
{
    overset                 1;
    dynamicOversetFvMesh    1;
    cellVolumeWeight        0;
}

application     overPimpleDyMFoam;

startFrom       latestTime;

startTime       0;

stopAt          endTime;
//stopAt          writeNow;

endTime         50;

deltaT          1e-2;
// deltaT          2e-5;
// maxDeltaT       0.005;

writeControl    timeStep;

writeInterval  100;

purgeWrite      0;

writeFormat     ascii;

writePrecision  10;

writeCompression off;

timeFormat      general;

timePrecision   6;

runTimeModifiable true;

// adjustTimeStep  true;

// maxCo          1;

functions
{
    // #include "catalyst"
    probes
    {
        type            probes;
        libs            (sampling);

        // Name of the directory for probe data
        name            probes;

        // Write at same frequency as fields
        writeControl    timeStep;
        writeInterval   50;

        // Fields to be probed
        fields          (p U);

        // Optional: interpolation scheme to use (default is cell)
        interpolationScheme cell;

        probeLocations
        (
            (0.015 0.005 0.005)
        );

    }
    //limitViscosity
    //{
    //    type            limitFields;
    //    libs            ("libfieldFunctionObjects.so");
    //    enable          true;
    //    writeControl    timeStep;
    //    writeInterval   50; 
    //    fields          (nut);
    //    
    //    limit           max;
    //    max             5.0;
    //}
}


// ************************************************************************* //
