/*--------------------------------*- C++ -*----------------------------------*\
| =========                 |                                                 |
| \\      /  F ield         | OpenFOAM: The Open Source CFD Toolbox           |
|  \\    /   O peration     | Version:  v2006                                 |
|   \\  /    A nd           | Web:      www.OpenFOAM.com                      |
|    \\/     M anipulation  |                                                 |
\*---------------------------------------------------------------------------*/
FoamFile
{
    version     2.0;
    format      ascii;
    class       volScalarField;
    location    "0";
    object      omega;
}
// * * * * * * * * * * * * * * * * * * * * * * * * * * * * * * * * * * * * * //
#include        "include/initialConditions"

dimensions      [0 0 -1 0 0 0 0];

internalField   uniform 1.069074894272534;

boundaryField
{
    #includeEtc "caseDicts/setConstraintTypes"
    
    oversetPatch
    {
        type            overset;
    }

    outlet
    {
        type            zeroGradient;
    }
    inlet
    {
        type            atmBoundaryLayerInletOmega;
        #include        "include/ABLConditions"
    }
    ground
    {
        type            omegaWallFunction;
        value           uniform 1.069074894272534;
    }
    
    #include "include/sideAndTopPatches"
}
