/*--------------------------------*- C++ -*----------------------------------*\
| =========                 |                                                 |
| \\      /  F ield         | OpenFOAM: The Open Source CFD Toolbox           |
|  \\    /   O peration     | Version:  v2406                                 |
|   \\  /    A nd           | Website:  www.openfoam.com                      |
|    \\/     M anipulation  |                                                 |
\*---------------------------------------------------------------------------*/
FoamFile
{
    version     2.0;
    format      ascii;
    class       dictionary;
    object      blockMeshDict;
}
// * * * * * * * * * * * * * * * * * * * * * * * * * * * * * * * * * * * * * //

scale   1;

vertices
(
//    // main background
//    (-100  -110  0)              // 0
//    ( 200  -110  0)              // 1
//    ( 200   110  0)              // 2
//    (-100   110  0)              // 3
//    (-100  -110  150)            // 4
//    ( 200  -110  150)            // 5
//    ( 200   110  150)            // 6
//    (-100   110  150)            // 7

    // movingZone1
    (-60  -110  10)        // 8    (0)
    ( 60  -110  10)        // 9    (1)
    ( 60   110  10)        // 10   (2)
    (-60   110  10)        // 11   (3)
    (-60  -110  95)        // 12   (4)
    ( 60  -110  95)        // 13   (5)
    ( 60   110  95)        // 14   (6)
    (-60   110  95)        // 15   (7)
);

blocks
(
   
    hex (0 1 2 3 4 5 6 7) movingZone (24 44 17) simpleGrading (1 1 1)
);

edges
(
);

boundary
(
    // ----- Overset(movingZone) -----
    oversetPatch
    {
        type        overset;
        faces
        (
            (0 1 5 4)
            (1 2 6 5)
            (2 3 7 6)
            (3 0 4 7)
            (0 3 2 1)
            (4 5 6 7)
        );
    }
);
mergePatchPairs
(
);


//    // ----- Background -----
//    ground
//    {
//        type wall;
//        faces
//        (
//            (0 3 2 1)
//        );
//    }
//    top
//    {
//        type patch;
//        faces
//        (
//            (4 5 6 7)
//        );
//    }
//
//    inlet
//    {
//        type patch;
//        faces
//        (
//            (0 4 7 3)
//        );
//    }
//
//    outlet
//    {
//        type patch;
//        faces
//        (
//            (2 6 5 1)
//        );
//    }
//    
//    sides
//    {
//        type patch; // maybe type patch;
//        faces
//        (
//            (1 5 4 0)
//            (3 7 6 2)
//        );
//    }
// ************************************************************************* //
